EPRI_Ckt7_DER_Project/electricdss-code-r4133-trunk-Distrib-EPRITestCircuits-ckt7/ckt7_EXP_CURRENTS.CSV
Element, I1_1, Ang1_1, I1_2, Ang1_2, I1_3, Ang1_3, I1_4, Ang1_4, Iresid1, AngResid1, I2_1, Ang2_1, I2_2, Ang2_2, I2_3, Ang2_3, I2_4, Ang2_4, Iresid2, AngResid2
Vsource.SOURCE,    412.846,   153.35,    412.476,    33.38,    412.831,   -86.59,          0,     0.00, 7.45058E-009,     0.00,    412.846,   -26.65,    412.476,  -146.62,    412.831,    93.41,          0,     0.00, 7.45058E-009,   180.00
Transformer.SUB1,    137.615,   -26.65,    137.492,  -146.62,     137.61,    93.41,          0,     0.00, 2.03369E-012,   -63.43,    1271.04,   123.35,    1268.18,     3.43,    1266.92,  -116.64,    5.18543,   -80.35, 1.64308E-008,    99.07
Transformer.SUB2,    137.615,   -26.65,    137.492,  -146.62,     137.61,    93.41,          0,     0.00, 2.03369E-012,   -63.43,    1271.04,   123.35,    1268.18,     3.43,    1266.92,  -116.64,    5.18543,   -80.35, 1.64308E-008,    99.07
Transformer.SUB3,    137.615,   -26.65,    137.492,  -146.62,     137.61,    93.41,          0,     0.00, 2.03369E-012,   -63.43,    1271.04,   123.35,    1268.18,     3.43,    1266.92,  -116.64,    5.18543,   -80.35, 1.64308E-008,    99.07
Line.326,          0,     0.00,          0,     0.00,          0,     0.00,          0,     0.00,          0,     0.00, 7.88502E-008,    50.74, 7.88609E-008,    -9.25,          0,     0.00,          0,     0.00, 1.36586E-007,    20.74
Line.333,    249.466,   -45.04,     219.46,  -162.12,    247.343,    75.11,          0,     0.00,    31.3462,    -8.88,    249.466,   134.96,     219.46,    17.88,    247.343,  -104.89,          0,     0.00,    31.3462,   171.12
Line.335,          0,     0.00,          0,     0.00,          0,     0.00,          0,     0.00,          0,     0.00, 7.88502E-008,    50.74, 7.88609E-008,    -9.25,          0,     0.00,          0,     0.00, 1.36586E-007,    20.74
Line.150394,    2.56333,   115.14,      2.564,    -4.88,    2.56313,  -124.88,          0,     0.00, 2.25531E-009,   -70.40,    2.56333,   -64.86,      2.564,   175.12,    2.56313,    55.12,          0,     0.00, 2.72226E-009,    96.14
Line.157109,    269.707,   -44.25,    239.784,  -161.48,    267.473,    75.90,          0,     0.00,    31.3677,    -9.09,    269.707,   135.75,    239.784,    18.52,    267.473,  -104.10,          0,     0.00,    31.3677,   170.91
Line.157115,    269.707,   -44.25,    238.018,  -161.30,    267.473,    75.90,          0,     0.00,    33.2836,    -8.83,    269.707,   135.75,    238.018,    18.70,    267.473,  -104.10,          0,     0.00,    33.2836,   171.17
Line.157116,  0.0462564,  -110.10, 7.50586E-008,   -69.80, 7.48863E-008,   170.13,          0,     0.00,  0.0462565,  -110.10,  0.0462565,    69.90, 3.63798E-012,   -90.00, 2.18279E-011,     0.00,          0,     0.00,  0.0462565,    69.90
Line.157118,    21.2339,   -65.35,    21.3946,   174.66,    21.4807,    54.65,          0,     0.00,    0.21454,    94.22,    21.2339,   114.65,    21.3946,    -5.34,    21.4807,  -125.35,          0,     0.00,    0.21454,   -85.78
Line.157119,    269.688,   -44.24,    236.826,  -161.17,    267.473,    75.90,          0,     0.00,    34.5923,    -8.61,    269.688,   135.76,    236.826,    18.83,    267.473,  -104.10,          0,     0.00,    34.5923,   171.39
Line.157120,    20.0039,   -65.34,    20.0918,   174.65,    20.1281,    54.63,          0,     0.00,   0.107258,    94.26,    20.0039,   114.66,    20.0918,    -5.35,    20.1281,  -125.37,          0,     0.00,   0.107258,   -85.74
Line.157121,    5.11601,   114.87,    5.12055,    -5.16,     5.1154,  -125.19,          0,     0.00, 2.30247E-008,   -35.51,    5.11601,   -65.13,    5.12055,   174.84,     5.1154,    54.81,          0,     0.00, 2.27615E-008,   144.92
Line.157122,     13.658,   -65.42,    13.6685,   174.57,    13.6601,    54.54,          0,     0.00, 6.08903E-008,   143.81,     13.658,   114.58,    13.6685,    -5.43,    13.6601,  -125.46,          0,     0.00, 6.12439E-008,   -36.19
Line.157123,    5.11601,   -65.13,    5.12055,   174.84,     5.1154,    54.81,          0,     0.00, 2.30735E-008,   144.04,    5.11601,   114.87,    5.12055,    -5.16,     5.1154,  -125.19,          0,     0.00, 2.30735E-008,   -35.96
Line.157124,    16.2462,   114.71,    16.2611,    -5.33,    16.2437,  -125.36,          0,     0.00, 8.58817E-008,   -35.84,    16.2462,   -65.29,    16.2611,   174.67,    16.2437,    54.64,          0,     0.00, 8.59761E-008,   144.20
Line.157126,    16.2462,   -65.29,    16.2611,   174.67,    16.2437,    54.64,          0,     0.00, 8.54976E-008,   144.16,    16.2462,   114.71,    16.2611,    -5.33,    16.2437,  -125.36,          0,     0.00, 8.54976E-008,   -35.84
Line.157127,    13.6853,   -65.30,    13.6981,   174.66,    13.6826,    54.63,          0,     0.00, 7.36876E-008,   143.97,    13.6853,   114.70,    13.6981,    -5.34,    13.6826,  -125.37,          0,     0.00, 7.36876E-008,   -36.03
Line.157128,    13.6439,   -65.07,    13.6567,   174.89,    13.6411,    54.86,          0,     0.00, 6.20234E-008,   143.93,    13.6439,   114.93,    13.6567,    -5.11,    13.6411,  -125.14,          0,     0.00, 6.20234E-008,   -36.07
Line.157129,    8.52479,   -64.91,    8.53342,   175.03,    8.52148,    55.01,          0,     0.00, 3.88257E-008,   143.97,    8.52479,   115.09,    8.53342,    -4.97,    8.52148,  -124.99,          0,     0.00, 3.88257E-008,   -36.03
Line.157130,    5.11923,   114.66,    5.12332,    -5.36,    5.11972,  -125.39,          0,     0.00, 2.32988E-008,   -35.47,    5.11923,   -65.34,    5.12332,   174.64,    5.11972,    54.61,          0,     0.00, 2.32988E-008,   144.53
Line.157131,   0.068336,  -117.93,  0.0683935,   122.10,  0.0683956,     2.04,          0,     0.00, 1.1641E-008,   143.99,   0.068336,    62.07,  0.0683935,   -57.90,  0.0683956,  -177.96,          0,     0.00, 1.1641E-008,   -36.01
Line.157132,    235.103,   -40.96,    199.627,  -156.29,    232.717,    79.27,          0,     0.00,    38.5247,    -8.54,    235.103,   139.04,    199.627,    23.71,    232.717,  -100.73,          0,     0.00,    38.5247,   171.46
Line.157133,    233.983,   -40.83,    199.627,  -156.29,    232.717,    79.27,          0,     0.00,    37.8645,    -6.98,    233.983,   139.17,    199.627,    23.71,    232.717,  -100.73,          0,     0.00,    37.8645,   173.02
Line.157136,    12.7716,   -64.58,    12.7879,   175.33,    12.7622,    55.31,          0,     0.00, 6.9221E-008,   143.34,    12.7716,   115.42,    12.7879,    -4.67,    12.7622,  -124.69,          0,     0.00, 6.90234E-008,   -36.60
Line.157137,    12.7716,   115.42,    12.7879,    -4.67,    12.7622,  -124.69,          0,     0.00, 6.90478E-008,   -36.67,    12.7716,   -64.58,    12.7879,   175.33,    12.7622,    55.31,          0,     0.00, 6.90478E-008,   143.33
Line.157138,    12.7716,   115.42,    12.7879,    -4.67,    12.7622,  -124.69,          0,     0.00, 6.88473E-008,   -36.49,    12.7716,   -64.58,    12.7879,   175.33,    12.7622,    55.31,          0,     0.00, 6.85115E-008,   143.55
Line.157142,    233.983,   -40.83,     199.62,  -156.29,    232.717,    79.27,          0,     0.00,    37.8823,    -7.01,    233.983,   139.17,     199.62,    23.71,    232.717,  -100.73,          0,     0.00,    37.8823,   172.99
Line.157143,    218.947,   -39.08,    184.711,  -153.74,     217.59,    81.07,          0,     0.00,    38.4008,    -7.16,    218.947,   140.92,    184.711,    26.26,     217.59,   -98.93,          0,     0.00,    38.4008,   172.84
Line.157144,    214.368,   -38.47,    180.358,  -152.87,    213.018,    81.68,          0,     0.00,    38.4347,    -7.20,    214.368,   141.53,    180.358,    27.13,    213.018,   -98.32,          0,     0.00,    38.4347,   172.80
Line.157145,    218.947,   -39.08,      184.7,  -153.73,     217.59,    81.07,          0,     0.00,    38.4347,    -7.20,    218.947,   140.92,      184.7,    26.27,     217.59,   -98.93,          0,     0.00,    38.4347,   172.80
Line.157147,    2.56122,   114.53,    2.56352,    -5.48,    2.56186,  -125.52,          0,     0.00, 1.50741E-008,   -36.15,    2.56122,   -65.47,    2.56352,   174.52,    2.56186,    54.48,          0,     0.00, 1.50741E-008,   143.85
Line.157148,    5.12113,   114.62,    5.12592,    -5.40,    5.12194,  -125.44,          0,     0.00, 2.9886E-008,   -37.56,    5.12113,   -65.38,    5.12592,   174.60,    5.12194,    54.56,          0,     0.00, 2.9886E-008,   142.44
Line.157149,    5.12113,   114.62,    5.12592,    -5.40,    5.12194,  -125.44,          0,     0.00, 2.98986E-008,   -35.26,    5.12113,   -65.38,    5.12592,   174.60,    5.12194,    54.56,          0,     0.00, 2.95646E-008,   144.80
Line.157150,    2.06281,   -65.25,    0.26478,   173.67,   0.274633,    53.89,          0,     0.00,    1.79244,   -64.83,    2.06281,   114.75,    0.26478,    -6.33,   0.274633,  -126.11,          0,     0.00,    1.79244,   115.17
Line.157151,    1.81271,   -65.06, 2.69115E-008,   -70.06, 2.68098E-008,   169.93,          0,     0.00,    1.81271,   -65.06,    1.81271,   114.94, 2.9611E-011,    47.49, 4.1159E-011,   135.00,          0,     0.00,    1.81271,   114.94
Line.157152,    212.529,   -38.22,    180.137,  -152.83,    212.775,    81.72,          0,     0.00,    37.5056,    -4.89,    212.529,   141.78,    180.137,    27.17,    212.775,   -98.28,          0,     0.00,    37.5056,   175.11
Line.157153,    12.2312,   114.62,          0,     0.00,          0,     0.00,          0,     0.00,    12.2312,   114.62,    12.2312,   -65.38,          0,     0.00,          0,     0.00,          0,     0.00,    12.2312,   -65.38
Line.157155,    12.2312,   -65.38,          0,     0.00,          0,     0.00,          0,     0.00,    12.2312,   -65.38,    12.2312,   114.62,          0,     0.00,          0,     0.00,          0,     0.00,    12.2312,   114.62
Line.157156,    7.33294,   -65.27,          0,     0.00,          0,     0.00,          0,     0.00,    7.33294,   -65.27,    7.33295,   114.73,          0,     0.00,          0,     0.00,          0,     0.00,    7.33295,   114.73
Line.157157,    4.88859,   -65.26,          0,     0.00,          0,     0.00,          0,     0.00,    4.88859,   -65.26,    4.88859,   114.74,          0,     0.00,          0,     0.00,          0,     0.00,    4.88859,   114.74
Line.157158,    2.44435,   -65.27,          0,     0.00,          0,     0.00,          0,     0.00,    2.44435,   -65.27,    2.44435,   114.73,          0,     0.00,          0,     0.00,          0,     0.00,    2.44435,   114.73
Line.157159,    2.44423,   -65.26,          0,     0.00,          0,     0.00,          0,     0.00,    2.44423,   -65.26,    2.44423,   114.74,          0,     0.00,          0,     0.00,          0,     0.00,    2.44423,   114.74
Line.157160,    201.723,   -36.63,    180.137,  -152.83,    212.775,    81.72,          0,     0.00,    33.2305,    13.79,    201.723,   143.37,    180.137,    27.17,    212.775,   -98.28,          0,     0.00,    33.2305,  -166.21
Line.157163,    2.55956,   -65.41,    2.56246,   174.56,    2.55977,    54.52,          0,     0.00, 1.78575E-008,   147.24,    2.55956,   114.59,    2.56246,    -5.44,    2.55977,  -125.48,          0,     0.00, 1.82509E-008,   -31.97
Line.157165,    2.55956,   -65.41,    2.56246,   174.56,    2.55977,    54.52,          0,     0.00, 1.7441E-008,   148.01,    2.55956,   114.59,    2.56246,    -5.44,    2.55977,  -125.48,          0,     0.00, 1.75555E-008,   -32.32
Line.157167,    2.55956,   -65.41,    2.56246,   174.56,    2.55977,    54.52,          0,     0.00, 1.8044E-008,   148.59,    2.55956,   114.59,    2.56246,    -5.44,    2.55977,  -125.48,          0,     0.00, 1.8044E-008,   -31.41
Line.157168,    192.055,   -35.06,    170.867,  -150.83,     202.96,    83.13,          0,     0.00,    33.2305,    13.79,    192.055,   144.94,    170.867,    29.17,     202.96,   -96.87,          0,     0.00,    33.2305,  -166.21
Line.174945, 2.73245E-006,    49.06, 2.7443E-006,   -70.58, 2.72299E-006,   169.25,          0,     0.00, 3.18545E-008,   -29.89, 3.64508E-012,    -3.58, 2.9118E-012,   -51.34, 1.81899E-012,    90.00,          0,     0.00, 5.49944E-012,    -7.13
Line.174947,    5.10655,   -65.40,    5.11355,   174.51,    5.10352,    54.49,          0,     0.00, 5.07192E-008,   149.27,    5.10655,   114.60,    5.11355,    -5.49,    5.10352,  -125.51,          0,     0.00, 5.12979E-008,   -30.80
Line.174948,    18.3337,   -65.73,    19.4993,   174.29,    16.1325,    54.75,          0,     0.00,    3.01453,  -147.98,    18.3337,   114.27,    19.4993,    -5.71,    16.1325,  -125.25,          0,     0.00,    3.01453,    32.02
Line.174950,     28.587,   -65.72,    31.6842,   174.30,    26.3796,    54.53,          0,     0.00,    4.68899,  -162.26,     28.587,   114.28,    31.6842,    -5.70,    26.3796,  -125.47,          0,     0.00,    4.68899,    17.74
Line.174951,    5.10655,   -65.40,    5.11355,   174.51,    5.10352,    54.49,          0,     0.00, 4.94553E-008,   149.79,    5.10655,   114.60,    5.11355,    -5.49,    5.10352,  -125.51,          0,     0.00, 4.96355E-008,   -30.17
Line.174952,    23.4806,   -65.79,    26.5707,   174.26,     21.276,    54.54,          0,     0.00,    4.68899,  -162.26,    23.4806,   114.21,    26.5707,    -5.74,     21.276,  -125.46,          0,     0.00,    4.68899,    17.74
Line.174953,    23.4806,   -65.79,    26.5707,   174.26,     21.276,    54.54,          0,     0.00,    4.68899,  -162.26,    23.4806,   114.21,    26.5707,    -5.74,     21.276,  -125.46,          0,     0.00,    4.68899,    17.74
Line.174954,    23.4806,   -65.79,    24.6532,   174.21,     21.276,    54.54,          0,     0.00,    3.01453,  -147.98,    23.4806,   114.21,    24.6532,    -5.79,     21.276,  -125.46,          0,     0.00,    3.01453,    32.02
Line.174955,    18.3337,   -65.73,    19.4993,   174.29,    16.1325,    54.75,          0,     0.00,    3.01453,  -147.98,    18.3337,   114.27,    19.4993,    -5.71,    16.1325,  -125.25,          0,     0.00,    3.01453,    32.02
Line.174956,    5.10655,   -65.40,    5.11355,   174.51,    5.10352,    54.49,          0,     0.00, 5.09617E-008,   149.91,    5.10655,   114.60,    5.11355,    -5.49,    5.10352,  -125.51,          0,     0.00, 5.09617E-008,   -30.09
Line.174957,    5.14687,   -65.99,    5.15401,   173.92,    5.14397,    53.90,          0,     0.00, 7.245E-008,   149.54,    5.14687,   114.01,    5.15401,    -6.08,    5.14397,  -126.10,          0,     0.00, 7.40149E-008,   -30.46
Line.174958,  0.0675171,  -118.70,  0.0676584,   121.30,  0.0675828,     1.20,          0,     0.00, 2.47192E-008,   149.00,  0.0675172,    61.30,  0.0676584,   -58.70,  0.0675828,  -178.80,          0,     0.00, 2.49316E-008,   -31.81
Line.174959,  0.0675171,  -118.70,  0.0676583,   121.30,  0.0675827,     1.20,          0,     0.00, 2.37786E-008,   148.82,  0.0675171,    61.30,  0.0676584,   -58.70,  0.0675828,  -178.80,          0,     0.00, 2.43925E-008,   -31.19
Line.174960,  0.0675172,  -118.70,  0.0676584,   121.30,  0.0675828,     1.20,          0,     0.00, 2.51382E-008,   149.80,  0.0675172,    61.30,  0.0676584,   -58.70,  0.0675828,  -178.80,          0,     0.00, 2.51382E-008,   -30.20
Line.174961,    18.3337,   -65.73,          0,     0.00,          0,     0.00,          0,     0.00,    18.3337,   -65.73,    18.3337,   114.27,          0,     0.00,          0,     0.00,          0,     0.00,    18.3337,   114.27
Line.174962,    14.6599,   -65.69,          0,     0.00,          0,     0.00,          0,     0.00,    14.6599,   -65.69,    14.6599,   114.31,          0,     0.00,          0,     0.00,          0,     0.00,    14.6599,   114.31
Line.174963,    12.2196,   -65.72,          0,     0.00,          0,     0.00,          0,     0.00,    12.2196,   -65.72,    12.2196,   114.28,          0,     0.00,          0,     0.00,          0,     0.00,    12.2196,   114.28
Line.174964,    7.32954,   -65.67,          0,     0.00,          0,     0.00,          0,     0.00,    7.32954,   -65.67,    7.32954,   114.33,          0,     0.00,          0,     0.00,          0,     0.00,    7.32954,   114.33
Line.174965,    4.88958,   -65.77,          0,     0.00,          0,     0.00,          0,     0.00,    4.88958,   -65.77,    4.88958,   114.23,          0,     0.00,          0,     0.00,          0,     0.00,    4.88958,   114.23
Line.174966,    16.1325,    54.75,          0,     0.00,          0,     0.00,          0,     0.00,    16.1325,    54.75,    16.1325,  -125.25,          0,     0.00,          0,     0.00,          0,     0.00,    16.1325,  -125.25
Line.174967,    4.03979,    54.58,          0,     0.00,          0,     0.00,          0,     0.00,    4.03979,    54.58,    4.03979,  -125.42,          0,     0.00,          0,     0.00,          0,     0.00,    4.03979,  -125.42
Line.174968,    4.03996,    54.57,          0,     0.00,          0,     0.00,          0,     0.00,    4.03996,    54.57,    4.03996,  -125.43,          0,     0.00,          0,     0.00,          0,     0.00,    4.03996,  -125.43
Line.174969,    8.05283,    54.92,          0,     0.00,          0,     0.00,          0,     0.00,    8.05283,    54.92,    8.05283,  -125.08,          0,     0.00,          0,     0.00,          0,     0.00,    8.05283,  -125.08
Line.174970,    5.36851,    54.92,          0,     0.00,          0,     0.00,          0,     0.00,    5.36851,    54.92,    5.36851,  -125.08,          0,     0.00,          0,     0.00,          0,     0.00,    5.36851,  -125.08
Line.174971,    2.68426,    54.92,          0,     0.00,          0,     0.00,          0,     0.00,    2.68426,    54.92,    2.68426,  -125.08,          0,     0.00,          0,     0.00,          0,     0.00,    2.68426,  -125.08
Line.174972,    2.68426,    54.92,          0,     0.00,          0,     0.00,          0,     0.00,    2.68426,    54.92,    2.68426,  -125.08,          0,     0.00,          0,     0.00,          0,     0.00,    2.68426,  -125.08
Line.174973,    19.4993,   174.29,          0,     0.00,          0,     0.00,          0,     0.00,    19.4993,   174.29,    19.4993,    -5.71,          0,     0.00,          0,     0.00,          0,     0.00,    19.4993,    -5.71
Line.174974,    15.6062,   174.26,          0,     0.00,          0,     0.00,          0,     0.00,    15.6062,   174.26,    15.6062,    -5.74,          0,     0.00,          0,     0.00,          0,     0.00,    15.6062,    -5.74
Line.174975,    11.7126,   174.24,          0,     0.00,          0,     0.00,          0,     0.00,    11.7126,   174.24,    11.7126,    -5.76,          0,     0.00,          0,     0.00,          0,     0.00,    11.7126,    -5.76
Line.174976,    2.58639,   174.73,          0,     0.00,          0,     0.00,          0,     0.00,    2.58639,   174.73,    2.58639,    -5.27,          0,     0.00,          0,     0.00,          0,     0.00,    2.58639,    -5.27
Line.174977,    9.12632,   174.10,          0,     0.00,          0,     0.00,          0,     0.00,    9.12632,   174.10,    9.12632,    -5.90,          0,     0.00,          0,     0.00,          0,     0.00,    9.12632,    -5.90
Line.174978,     3.9441,   173.63,          0,     0.00,          0,     0.00,          0,     0.00,     3.9441,   173.63,     3.9441,    -6.37,          0,     0.00,          0,     0.00,          0,     0.00,     3.9441,    -6.37
Line.174979,  0.0707425,   129.72,          0,     0.00,          0,     0.00,          0,     0.00,  0.0707425,   129.72,  0.0707425,   -50.28,          0,     0.00,          0,     0.00,          0,     0.00,  0.0707425,   -50.28
Line.174980,     28.587,   114.28,    31.6842,    -5.70,    26.4215,  -125.56,          0,     0.00,    4.63161,    17.83,     28.587,   -65.72,    31.6842,   174.30,    26.4215,    54.44,          0,     0.00,    4.63161,  -162.17
Line.174981, 5.05246E-008,    48.69, 5.08908E-008,   -70.77, 5.04652E-008,   169.33,          0,     0.00, 9.20344E-010,   -55.30, 2.39996E-010,   104.04, 1.45519E-010,    36.87, 2.91038E-011,    90.00,          0,     0.00, 3.54063E-010,    80.54
Line.174982,     28.587,   114.28,    31.6842,    -5.70,    26.4215,  -125.56,          0,     0.00,    4.63161,    17.83,     28.587,   -65.72,    31.6842,   174.30,    26.4215,    54.44,          0,     0.00,    4.63161,  -162.17
Line.174983,    104.134,   142.82,    109.137,    21.33,    103.127,   -97.04,          0,     0.00,    6.05496,     2.62,    104.134,   -37.18,    109.137,  -158.67,    103.127,    82.96,          0,     0.00,    6.05496,  -177.38
Line.174984, 2.29637E-007,    49.12, 2.30663E-007,   -70.53, 2.28796E-007,   169.27,          0,     0.00, 2.70666E-009,   -28.15, 3.91822E-011,   -68.20, 1.81899E-011,    36.87, 6.86412E-011,   -32.01,          0,     0.00, 1.06996E-010,   -35.31
Line.174987,    80.1925,   -27.37,    82.1835,  -148.58,    80.8992,    91.93,          0,     0.00,    1.99752,   145.16,    80.1925,   152.63,    82.1835,    31.42,    80.8992,   -88.07,          0,     0.00,    1.99752,   -34.84
Line.174988,     48.368,    16.86,    48.7719,  -106.02,    48.3731,   135.43,          0,     0.00,    1.96159,   145.93,     48.368,  -163.14,    48.7719,    73.98,    48.3731,   -44.57,          0,     0.00,    1.96159,   -34.07
Line.174989,    7.58905,   -65.90,    5.15798,   173.70,    5.14901,    53.67,          0,     0.00,    2.43819,   -65.22,    7.58905,   114.10,    5.15798,    -6.30,    5.14901,  -126.33,          0,     0.00,    2.43819,   114.78
Line.174990,    56.6743,   -63.91,     56.822,   175.92,    56.6334,    55.91,          0,     0.00,  0.0447626,   108.91,    56.6743,   116.09,     56.822,    -4.08,    56.6334,  -124.09,          0,     0.00,  0.0447626,   -71.09
Line.174991, 7.47004E-008,    49.06, 7.4861E-008,   -70.66, 7.45134E-008,   169.33,          0,     0.00, 6.68161E-010,   -38.37, 9.89637E-011,   -53.97, 3.25391E-010,   -26.57, 1.30156E-010,    26.57,          0,     0.00, 4.94819E-010,   -19.77
Line.174994,    20.1674,    54.79,          0,     0.00,          0,     0.00,          0,     0.00,    20.1674,    54.79,    20.1674,  -125.21,          0,     0.00,          0,     0.00,          0,     0.00,    20.1674,  -125.21
Line.174995,    104.134,   142.82,    109.137,    21.33,    103.127,   -97.04,          0,     0.00,    6.05496,     2.62,    104.134,   -37.18,    109.137,  -158.67,    103.127,    82.96,          0,     0.00,    6.05496,  -177.38
Line.174998,    119.472,   139.07,    124.649,    17.90,    118.409,  -100.86,          0,     0.00,    6.05496,     2.62,    119.472,   -40.93,    124.649,  -162.10,    118.409,    79.14,          0,     0.00,    6.05496,  -177.38
Line.174999,     119.92,   138.97,    124.649,    17.90,    118.409,  -100.86,          0,     0.00,    5.89221,     7.10,     119.92,   -41.03,    124.649,  -162.10,    118.409,    79.14,          0,     0.00,    5.89221,  -172.90
Line.175000,    20.1674,    54.79,          0,     0.00,          0,     0.00,          0,     0.00,    20.1674,    54.79,    20.1674,  -125.21,          0,     0.00,          0,     0.00,          0,     0.00,    20.1674,  -125.21
Line.175001,  0.0675914,    61.32,  0.0677396,   -58.69,  0.0676569,  -178.79,          0,     0.00, 2.64893E-008,   -29.78,  0.0675913,  -118.68,  0.0677395,   121.31,  0.0676568,     1.21,          0,     0.00, 2.63632E-008,   151.23
Line.175002,    7.58905,   -65.90,    5.15798,   173.70,    5.14901,    53.67,          0,     0.00,    2.43819,   -65.22,    7.58905,   114.10,    5.15798,    -6.30,    5.14901,  -126.33,          0,     0.00,    2.43819,   114.78
Line.175003,    5.15113,   -66.23,    5.15798,   173.70,    5.14901,    53.67,          0,     0.00, 7.73259E-008,   150.57,    5.15113,   113.77,    5.15798,    -6.30,    5.14901,  -126.33,          0,     0.00, 7.83449E-008,   -29.42
Line.175004,  0.0675913,  -118.68,  0.0677395,   121.31,  0.0676568,     1.21,          0,     0.00, 2.55834E-008,   149.79,  0.0675913,    61.32,  0.0677395,   -58.69,  0.0676568,  -178.79,          0,     0.00, 2.59479E-008,   -30.18
Line.175005,  0.0675914,  -118.68,  0.0677396,   121.31,  0.0676569,     1.21,          0,     0.00, 2.60926E-008,   149.95,  0.0675914,    61.32,  0.0677396,   -58.69,  0.0676569,  -178.79,          0,     0.00, 2.60926E-008,   -30.05
Line.175006,    14.8098,    54.72,          0,     0.00,          0,     0.00,          0,     0.00,    14.8098,    54.72,    14.8098,  -125.28,          0,     0.00,          0,     0.00,          0,     0.00,    14.8098,  -125.28
Line.175007,        130,   136.94,    124.649,    17.90,    137.034,  -104.34,          0,     0.00,    11.7799,  -150.99,        130,   -43.06,    124.649,  -162.10,    137.034,    75.66,          0,     0.00,    11.7799,    29.01
Line.175008,    138.449,   159.42,    134.105,    41.26,    143.628,   -82.82,          0,     0.00,     12.134,  -153.57,    138.449,   -20.58,    134.105,  -138.74,    143.628,    97.18,          0,     0.00,     12.134,    26.43
Line.175009,    14.8098,    54.72,          0,     0.00,          0,     0.00,          0,     0.00,    14.8098,    54.72,    14.8098,  -125.28,          0,     0.00,          0,     0.00,          0,     0.00,    14.8098,  -125.28
Line.175010,     14.683,   -65.75,          0,     0.00,          0,     0.00,          0,     0.00,     14.683,   -65.75,     14.683,   114.25,          0,     0.00,          0,     0.00,          0,     0.00,     14.683,   114.25
Line.175011,    2.44094,   -65.45,          0,     0.00,          0,     0.00,          0,     0.00,    2.44094,   -65.45,    2.44094,   114.55,          0,     0.00,          0,     0.00,          0,     0.00,    2.44094,   114.55
Line.175013,    12.2421,   -65.81,          0,     0.00,          0,     0.00,          0,     0.00,    12.2421,   -65.81,    12.2421,   114.19,          0,     0.00,          0,     0.00,          0,     0.00,    12.2421,   114.19
Line.175014,    3.67522,   -65.85,          0,     0.00,          0,     0.00,          0,     0.00,    3.67522,   -65.85,    3.67522,   114.15,          0,     0.00,          0,     0.00,          0,     0.00,    3.67522,   114.15
Line.175015,    8.56684,   -65.79,          0,     0.00,          0,     0.00,          0,     0.00,    8.56684,   -65.79,    8.56684,   114.21,          0,     0.00,          0,     0.00,          0,     0.00,    8.56684,   114.21
Line.175016,     3.6752,   -65.85,          0,     0.00,          0,     0.00,          0,     0.00,     3.6752,   -65.85,     3.6752,   114.15,          0,     0.00,          0,     0.00,          0,     0.00,     3.6752,   114.15
Line.175017,    4.89164,   -65.74,          0,     0.00,          0,     0.00,          0,     0.00,    4.89164,   -65.74,    4.89164,   114.26,          0,     0.00,          0,     0.00,          0,     0.00,    4.89164,   114.26
Line.175018,    2.44098,   114.51,          0,     0.00,          0,     0.00,          0,     0.00,    2.44098,   114.51,    2.44098,   -65.49,          0,     0.00,          0,     0.00,          0,     0.00,    2.44098,   -65.49
Line.175019,    3.67529,   -65.89,          0,     0.00,          0,     0.00,          0,     0.00,    3.67529,   -65.89,    3.67529,   114.11,          0,     0.00,          0,     0.00,          0,     0.00,    3.67529,   114.11
Line.175020,    6.11624,   114.27,          0,     0.00,          0,     0.00,          0,     0.00,    6.11624,   114.27,    6.11624,   -65.73,          0,     0.00,          0,     0.00,          0,     0.00,    6.11624,   -65.73
Line.175021,    11.0079,   114.25,          0,     0.00,          0,     0.00,          0,     0.00,    11.0079,   114.25,    11.0079,   -65.75,          0,     0.00,          0,     0.00,          0,     0.00,    11.0079,   -65.75
Line.175022,    14.8098,    54.72,          0,     0.00,          0,     0.00,          0,     0.00,    14.8098,    54.72,    14.8098,  -125.28,          0,     0.00,          0,     0.00,          0,     0.00,    14.8098,  -125.28
Line.175023,    20.1674,    54.79,          0,     0.00,          0,     0.00,          0,     0.00,    20.1674,    54.79,    20.1674,  -125.21,          0,     0.00,          0,     0.00,          0,     0.00,    20.1674,  -125.21
Line.175024,    14.7883,    54.81,          0,     0.00,          0,     0.00,          0,     0.00,    14.7883,    54.81,    14.7883,  -125.19,          0,     0.00,          0,     0.00,          0,     0.00,    14.7883,  -125.19
Line.175025,    10.7478,    54.88,          0,     0.00,          0,     0.00,          0,     0.00,    10.7478,    54.88,    10.7478,  -125.12,          0,     0.00,          0,     0.00,          0,     0.00,    10.7478,  -125.12
Line.175026,    5.36873,    55.03,          0,     0.00,          0,     0.00,          0,     0.00,    5.36873,    55.03,    5.36873,  -124.97,          0,     0.00,          0,     0.00,          0,     0.00,    5.36873,  -124.97
Line.175027,    2.68421,    55.05,          0,     0.00,          0,     0.00,          0,     0.00,    2.68421,    55.05,    2.68421,  -124.95,          0,     0.00,          0,     0.00,          0,     0.00,    2.68421,  -124.95
Line.175029,    13.4602,  -125.29,          0,     0.00,          0,     0.00,          0,     0.00,    13.4602,  -125.29,    13.4602,    54.71,          0,     0.00,          0,     0.00,          0,     0.00,    13.4602,    54.71
Line.175030,    13.4602,    54.71,          0,     0.00,          0,     0.00,          0,     0.00,    13.4602,    54.71,    13.4602,  -125.29,          0,     0.00,          0,     0.00,          0,     0.00,    13.4602,  -125.29
Line.175031,    5.37886,    54.77,          0,     0.00,          0,     0.00,          0,     0.00,    5.37886,    54.77,    5.37886,  -125.23,          0,     0.00,          0,     0.00,          0,     0.00,    5.37886,  -125.23
Line.175032,    8.08136,    54.67,          0,     0.00,          0,     0.00,          0,     0.00,    8.08136,    54.67,    8.08136,  -125.33,          0,     0.00,          0,     0.00,          0,     0.00,    8.08136,  -125.33
Line.175033,    4.04063,    54.68,          0,     0.00,          0,     0.00,          0,     0.00,    4.04063,    54.68,    4.04063,  -125.32,          0,     0.00,          0,     0.00,          0,     0.00,    4.04063,  -125.32
Line.175034,    19.8662,   113.30,    18.7543,    -6.88,    17.4125,  -127.02,          0,     0.00,    2.11473,    82.42,    19.8662,   -66.70,    18.7543,   173.12,    17.4125,    52.98,          0,     0.00,    2.11473,   -97.58
Line.175035,   0.677043,  -118.15,   0.678522,   121.85,   0.677707,     1.74,          0,     0.00, 2.62417E-007,   150.27,   0.677043,    61.85,   0.678522,   -58.15,   0.677707,  -178.26,          0,     0.00, 2.62677E-007,   -29.72
Line.175036,    17.0107,   -65.11,    17.0367,   174.79,    16.9965,    54.76,          0,     0.00, 1.74134E-007,   150.20,    17.0107,   114.89,    17.0367,    -5.21,    16.9965,  -125.24,          0,     0.00, 1.74278E-007,   -29.73
Line.175037,    149.165,   155.42,    134.105,    41.26,    154.877,   -86.52,          0,     0.00,    25.7802,  -170.84,    149.165,   -24.58,    134.105,  -138.74,    154.877,    93.48,          0,     0.00,    25.7802,     9.16
Line.175038,    19.8662,   -66.70,    18.7543,   173.12,    17.4125,    52.98,          0,     0.00,    2.11473,   -97.58,    19.8662,   113.30,    18.7543,    -6.88,    17.4125,  -127.02,          0,     0.00,    2.11473,    82.42
Line.175040,   0.677043,  -118.15,   0.678522,   121.85,   0.677707,     1.74,          0,     0.00, 2.61918E-007,   150.34,   0.677043,    61.85,   0.678522,   -58.15,   0.677707,  -178.26,          0,     0.00, 2.62191E-007,   -29.66
Line.175041,    19.4514,   -65.14,    18.3374,   174.77,    16.9965,    54.76,          0,     0.00,    2.11473,   -97.58,    19.4514,   114.86,    18.3374,    -5.23,    16.9965,  -125.24,          0,     0.00,    2.11473,    82.42
Line.175042,    17.0107,   -65.11,    18.3374,   174.77,    16.9965,    54.76,          0,     0.00,    1.30077,   174.58,    17.0107,   114.89,    18.3374,    -5.23,    16.9965,  -125.24,          0,     0.00,    1.30077,    -5.42
Line.175043, 2.22057E-008,    49.11,    1.30077,   174.58, 2.20673E-008,   169.28,          0,     0.00,    1.30077,   174.58, 2.18279E-011,   -90.00,    1.30077,    -5.42, 9.20344E-011,  -161.57,          0,     0.00,    1.30077,    -5.42
Line.175044,    17.0107,   -65.11,    17.0367,   174.79,    16.9965,    54.76,          0,     0.00, 1.73614E-007,   150.15,    17.0107,   114.89,    17.0367,    -5.21,    16.9965,  -125.24,          0,     0.00, 1.73769E-007,   -29.84
Line.175045,    1.30077,   174.58,          0,     0.00,          0,     0.00,          0,     0.00,    1.30077,   174.58,    1.30077,    -5.42,          0,     0.00,          0,     0.00,          0,     0.00,    1.30077,    -5.42
Line.175046, 8.6462E-008,   -70.41,          0,     0.00,          0,     0.00,          0,     0.00, 8.6462E-008,   -70.41, 3.63798E-012,    90.00,          0,     0.00,          0,     0.00,          0,     0.00, 3.63798E-012,    90.00
Line.175047,    17.0107,   -65.11,    17.0367,   174.79,    16.9965,    54.76,          0,     0.00, 1.74784E-007,   150.25,    17.0107,   114.89,    17.0367,    -5.21,    16.9965,  -125.24,          0,     0.00, 1.74784E-007,   -29.75
Line.175048,   0.677043,  -118.15,   0.678522,   121.85,   0.677707,     1.74,          0,     0.00, 2.62466E-007,   150.30,   0.677043,    61.85,   0.678522,   -58.15,   0.677707,  -178.26,          0,     0.00, 2.62466E-007,   -29.70
Line.175049,     164.44,   150.77,    147.283,    35.82,    168.499,   -90.37,          0,     0.00,    25.2525,  -175.44,     164.44,   -29.23,    147.283,  -144.18,    168.499,    89.63,          0,     0.00,    25.2525,     4.56
Line.175051,    33.0048,   -65.46,    29.9242,   174.38,     40.331,    54.93,          0,     0.00,    9.24113,    39.80,    33.0048,   114.54,    29.9242,    -5.62,     40.331,  -125.07,          0,     0.00,    9.24113,  -140.20
Line.175052,    55.9195,   -63.87,    56.0397,   175.94,    55.8219,    55.93,          0,     0.00, 5.80049E-007,   151.05,    55.9195,   116.13,    56.0397,    -4.06,    55.8219,  -124.07,          0,     0.00, 5.81135E-007,   -28.93
Line.175053,    56.6743,   -63.91,     56.822,   175.92,    56.6334,    55.91,          0,     0.00,  0.0447626,   108.91,    56.6743,   116.09,     56.822,    -4.08,    56.6334,  -124.09,          0,     0.00,  0.0447626,   -71.09
Line.175054,    56.6578,   -63.89,     56.822,   175.92,    56.6334,    55.91,          0,     0.00,  0.0646618,    96.61,    56.6578,   116.11,     56.822,    -4.08,    56.6334,  -124.09,          0,     0.00,  0.0646618,   -83.39
Line.175055,    55.9195,   -63.87,    56.0397,   175.94,    55.8219,    55.93,          0,     0.00, 5.77387E-007,   151.02,    55.9195,   116.13,    56.0397,    -4.06,    55.8219,  -124.07,          0,     0.00, 5.80023E-007,   -28.98
Line.175056,    55.9195,   -63.87,    56.0397,   175.94,    55.8219,    55.93,          0,     0.00, 5.80128E-007,   151.05,    55.9195,   116.13,    56.0397,    -4.06,    55.8219,  -124.07,          0,     0.00, 5.80128E-007,   -28.95
Line.175057,    50.8159,   -63.72,    50.9286,   176.08,    50.7212,    56.07,          0,     0.00, 5.27243E-007,   151.07,    50.8159,   116.28,    50.9286,    -3.92,    50.7212,  -123.93,          0,     0.00, 5.27243E-007,   -28.93
Line.175058,    16.9766,   -64.52,    17.0075,   175.33,    16.9532,    55.32,          0,     0.00, 1.75796E-007,   151.06,    16.9766,   115.48,    17.0075,    -4.67,    16.9532,  -124.68,          0,     0.00, 1.75796E-007,   -28.94
Line.175059,    33.8418,   -63.32,    33.9233,   176.46,    33.7702,    56.45,          0,     0.00, 3.516E-007,   151.06,    33.8418,   116.68,    33.9233,    -3.54,    33.7702,  -123.55,          0,     0.00, 3.516E-007,   -28.94
Line.175060,     48.006,    25.88,    48.1705,   -99.96,    47.9066,   141.53,          0,     0.00,    4.24021,   128.63,     48.006,  -154.12,    48.1705,    80.04,    47.9066,   -38.47,          0,     0.00,    4.24021,   -51.37
Line.175061,    20.8621,   -65.99,    26.1646,   174.04,    24.5693,    54.30,          0,     0.00,    4.82653,   131.51,    20.8621,   114.01,    26.1646,    -5.96,    24.5693,  -125.70,          0,     0.00,    4.82653,   -48.49
Line.175062,    20.8621,   -65.99,    26.1473,   174.07,    24.5693,    54.30,          0,     0.00,    4.80343,   131.51,    20.8621,   114.01,    26.1473,    -5.93,    24.5693,  -125.70,          0,     0.00,    4.80343,   -48.49
Line.175063,     20.845,   -65.95,    26.1473,   174.07,    24.5693,    54.30,          0,     0.00,    4.81517,   131.27,     20.845,   114.05,    26.1473,    -5.93,    24.5693,  -125.70,          0,     0.00,    4.81517,   -48.73
Line.175064,     20.845,   -65.95,    26.1473,   174.07,    24.5693,    54.30,          0,     0.00,    4.81517,   131.27,     20.845,   114.05,    26.1473,    -5.93,    24.5693,  -125.70,          0,     0.00,    4.81517,   -48.73
Line.175065, 1.78093E-007,  -130.97, 1.79272E-007,   109.45, 1.77752E-007,   -10.77,          0,     0.00, 2.28323E-009,   143.42, 2.5195E-007,    49.03, 2.53353E-007,   -70.55, 2.51574E-007,   169.24,          0,     0.00, 2.94281E-009,   -34.83
Line.175066,  0.0230062,    72.08,  0.0230995,   -47.57,  0.0229205,  -167.75,          0,     0.00, 0.000266816,    -4.39,  0.0230061,  -107.92,  0.0230994,   132.43,  0.0229204,    12.25,          0,     0.00, 0.000266815,   175.61
Line.175067,  0.0230061,  -107.92,  0.0230994,   132.43,  0.0229204,    12.25,          0,     0.00, 0.000266815,   175.61,  0.0230061,    72.08,  0.0230994,   -47.57,  0.0229204,  -167.75,          0,     0.00, 0.000266815,    -4.39
Line.175068,  0.0230062,  -107.92,  0.0230995,   132.43,  0.0229205,    12.25,          0,     0.00, 0.000266816,   175.61,  0.0230062,    72.08,  0.0230995,   -47.57,  0.0229205,  -167.75,          0,     0.00, 0.000266816,    -4.39
Line.175069, 1.78387E-007,    49.05, 1.79115E-007,   -70.58, 1.7782E-007,   169.22,          0,     0.00, 2.01267E-009,   -27.21, 3.25391E-011,    26.57, 6.35346E-011,   103.24, 5.82077E-011,     0.00,          0,     0.00, 1.05501E-010,    46.40
Line.175070, 2.92231E-007,    49.06, 2.93316E-007,   -70.57, 2.91224E-007,   169.29,          0,     0.00, 3.39406E-009,   -30.96, 2.52631E-007,  -130.91, 2.53331E-007,   109.43, 2.51863E-007,   -10.68,          0,     0.00, 2.55584E-009,   149.93
Line.175071,    20.8279,   -65.91,      26.13,   174.10,    24.5523,    54.34,          0,     0.00,    4.81498,   131.27,    20.8279,   114.09,      26.13,    -5.90,    24.5523,  -125.66,          0,     0.00,    4.81498,   -48.73
Line.175072,    3.78379,   -65.67,    3.89246,   173.90,    3.90454,    54.45,          0,     0.00,   0.148177,   106.11,    3.78379,   114.33,    3.89246,    -6.10,    3.90454,  -125.55,          0,     0.00,   0.148177,   -73.89
Line.175074,    3.78379,   -65.67,    3.89246,   173.90,    3.90454,    54.45,          0,     0.00,   0.148177,   106.11,    3.78379,   114.33,    3.89246,    -6.10,    3.90454,  -125.55,          0,     0.00,   0.148177,   -73.89
Line.175075,    3.78379,   -65.67,    3.89246,   173.90,    3.90454,    54.45,          0,     0.00,   0.148177,   106.11,    3.78379,   114.33,    3.89246,    -6.10,    3.90454,  -125.55,          0,     0.00,   0.148177,   -73.89
Line.175078, 8.49985E-008,    50.08, 8.67693E-008,   -69.91, 8.37582E-008,   169.75,          0,     0.00, 2.37513E-009,   -36.03, 7.59373E-008,  -129.53, 7.69921E-008,   110.43, 7.47209E-008,   -10.05,          0,     0.00, 1.72218E-009,   161.49
Line.175079,    17.0442,   114.04,    22.2376,    -5.86,    20.6477,  -125.68,          0,     0.00,    4.68129,   -47.96,    17.0442,   -65.96,    22.2376,   174.14,    20.6477,    54.32,          0,     0.00,    4.68129,   132.04
Line.175080,    17.0442,   -65.96,    22.2376,   174.14,    20.6477,    54.32,          0,     0.00,    4.68129,   132.04,    17.0442,   114.04,    22.2376,    -5.86,    20.6477,  -125.68,          0,     0.00,    4.68129,   -47.96
Line.175081, 8.56626E-008,  -129.86, 8.78657E-008,   110.89, 8.47265E-008,   -10.33,          0,     0.00, 3.09679E-009,   158.50, 1.0068E-007,    49.99, 1.02968E-007,   -69.30, 9.96582E-008,   169.60,          0,     0.00, 3.34542E-009,   -21.43
Line.175082,    17.0442,   -65.96,    22.2376,   174.14,    20.6477,    54.32,          0,     0.00,    4.68129,   132.04,    17.0442,   114.04,    22.2376,    -5.86,    20.6477,  -125.68,          0,     0.00,    4.68129,   -47.96
Line.175083,    17.0442,   -65.96,    22.2376,   174.14,    20.6477,    54.32,          0,     0.00,    4.68129,   132.04,    17.0442,   114.04,    22.2376,    -5.86,    20.6477,  -125.68,          0,     0.00,    4.68129,   -47.96
Line.175084,    17.0442,   -65.96,    22.2376,   174.14,    20.6477,    54.32,          0,     0.00,    4.68129,   132.04,    17.0442,   114.04,    22.2376,    -5.86,    20.6477,  -125.68,          0,     0.00,    4.68129,   -47.96
Line.175085,    17.0442,   -65.96,    22.2376,   174.14,    20.6307,    54.36,          0,     0.00,    4.69272,   132.28,    17.0442,   114.04,    22.2376,    -5.86,    20.6307,  -125.64,          0,     0.00,    4.69272,   -47.72
Line.175086,    16.3056,   -65.97,    21.4551,   174.12,    19.8191,    54.35,          0,     0.00,    4.64067,   132.75,    16.3056,   114.03,    21.4551,    -5.88,    19.8191,  -125.65,          0,     0.00,    4.64067,   -47.25
Line.175087,     15.567,   -65.98,    20.6727,   174.11,    19.0075,    54.33,          0,     0.00,    4.58897,   133.23,     15.567,   114.02,    20.6727,    -5.89,    19.0075,  -125.67,          0,     0.00,    4.58897,   -46.77
Line.175088,   0.738583,   -65.76,    5.96346,   174.52,   0.811595,    54.75,          0,     0.00,    5.19472,   173.83,   0.738583,   114.24,    5.96346,    -5.48,   0.811595,  -125.25,          0,     0.00,    5.19472,    -6.17
Line.175089, 2.20351E-008,    49.18,    5.18108,   174.52, 2.19869E-008,   169.17,          0,     0.00,    5.18108,   174.52, 1.16017E-010,   -48.81,    5.18108,    -5.48, 6.50781E-011,    26.57,          0,     0.00,    5.18108,    -5.48
Line.175090,     2.5571,   -65.68,    2.55988,   174.26,    2.55628,    54.23,          0,     0.00, 2.44494E-008,   154.30,     2.5571,   114.32,    2.55988,    -5.74,    2.55628,  -125.77,          0,     0.00, 2.5155E-008,   -25.36
Line.175091,    14.8284,   -65.99,    14.7095,   173.94,    18.1959,    54.31,          0,     0.00,    3.44165,    54.02,    14.8284,   114.01,    14.7095,    -6.06,    18.1959,  -125.69,          0,     0.00,    3.44165,  -125.98
Line.175092,     2.5571,   -65.68,    2.55988,   174.26,    2.55628,    54.23,          0,     0.00, 2.42809E-008,   153.71,     2.5571,   114.32,    2.55988,    -5.74,    2.55628,  -125.77,          0,     0.00, 2.45033E-008,   -25.96
Line.175093,    12.2713,   -66.05,    12.1497,   173.88,    15.6397,    54.32,          0,     0.00,    3.44165,    54.02,    12.2713,   113.95,    12.1497,    -6.12,    15.6397,  -125.68,          0,     0.00,    3.44165,  -125.98
Line.175094,     2.5571,   -65.68,    2.55988,   174.26,    2.55628,    54.23,          0,     0.00, 2.52055E-008,   154.64,     2.5571,   114.32,    2.55988,    -5.74,    2.55628,  -125.77,          0,     0.00, 2.52055E-008,   -25.36
Line.175098, 6.65991E-008,    49.05, 6.68491E-008,   -70.59, 6.63638E-008,   169.22,          0,     0.00, 7.49212E-010,   -26.53, 1.26351E-011,  -120.26, 6.55846E-012,   -33.69, 3.25391E-011,    63.43,          0,     0.00, 1.99468E-011,    46.85
Line.182901,    11.4518,   114.30,    11.5861,    -5.97,    11.5694,  -125.71,          0,     0.00,   0.170692,   -70.52,    11.4518,   -65.70,    11.5861,   174.03,    11.5694,    54.29,          0,     0.00,   0.170692,   109.48
Line.182907,    11.4518,   114.30,    11.5861,    -5.97,    14.2528,  -125.59,          0,     0.00,    2.78607,  -122.18,    11.4518,   -65.70,    11.5861,   174.03,    14.2528,    54.41,          0,     0.00,    2.78607,    57.82
Line.182908,  0.0878347,  -109.15,  0.0300033,   131.21,   0.029771,    11.01,          0,     0.00,  0.0580388,  -109.48,  0.0878348,    70.85,  0.0300034,   -48.79,  0.0297711,  -168.99,          0,     0.00,  0.0580388,    70.52
Line.182909,    11.5157,   114.00,    11.6082,    -6.07,    14.2745,  -125.67,          0,     0.00,    2.72949,  -122.45,    11.5157,   -66.00,    11.6082,   173.93,    14.2745,    54.33,          0,     0.00,    2.72949,    57.55
Line.182910,   0.022979,  -107.92,  0.0230631,   132.43,  0.0228851,    12.24,          0,     0.00, 0.000266473,   178.19,  0.0229791,    72.08,  0.0230631,   -47.57,  0.0228852,  -167.76,          0,     0.00, 0.000266474,    -1.81
Line.182911,    11.4518,   -65.70,    11.5861,   174.03,    11.5694,    54.29,          0,     0.00,   0.170692,   109.48,    11.4518,   114.30,    11.5861,    -5.97,    11.5694,  -125.71,          0,     0.00,   0.170692,   -70.52
Line.182912,    10.2247,   -65.69,    10.2861,   173.98,    10.2207,    54.23,          0,     0.00,  0.0706924,   129.70,    10.2247,   114.31,    10.2861,    -6.02,    10.2207,  -125.77,          0,     0.00,  0.0706924,   -50.30
Line.182913,    1.22711,   -65.78,    1.30013,   174.51,    1.34882,    54.72,          0,     0.00,   0.107177,    96.31,    1.22711,   114.22,    1.30013,    -5.49,    1.34882,  -125.28,          0,     0.00,   0.107177,   -83.69
Line.182914,    5.11121,   -65.73,    5.11667,   174.20,    5.10918,    54.18,          0,     0.00, 5.14521E-008,   155.51,    5.11121,   114.27,    5.11667,    -5.80,    5.10918,  -125.82,          0,     0.00, 5.14521E-008,   -24.49
Line.182915,    5.11346,   -65.64,    5.16946,   173.75,     5.1115,    54.28,          0,     0.00,  0.0706924,   129.70,    5.11346,   114.36,    5.16946,    -6.25,     5.1115,  -125.72,          0,     0.00,  0.0706924,   -50.30
Line.182916,    2.55682,   -65.65,    2.55952,   174.29,    2.55587,    54.26,          0,     0.00, 2.5708E-008,   155.50,    2.55682,   114.35,    2.55952,    -5.71,    2.55587,  -125.74,          0,     0.00, 2.5708E-008,   -24.50
Line.183044,    15.5521,    -5.38,    18.8199,  -125.07,          0,     0.00,          0,     0.00,    17.4967,   -74.52,    15.5521,   174.62,    18.8199,    54.93,          0,     0.00,          0,     0.00,    17.4967,   105.48
Line.183045,    33.0048,   114.54,    14.3724,    -5.87,    21.5111,  -125.07,          0,     0.00,    16.0733,   137.07,    33.0048,   -65.46,    14.3724,   174.13,    21.5111,    54.93,          0,     0.00,    16.0733,   -42.93
Line.183046,    33.0048,   -65.46,    29.9242,   174.38,     40.331,    54.93,          0,     0.00,    9.24113,    39.80,    33.0048,   114.54,    29.9242,    -5.62,     40.331,  -125.07,          0,     0.00,    9.24113,  -140.20
Line.183048,    33.0048,   -65.46,    29.9242,   174.38,     40.331,    54.93,          0,     0.00,    9.24113,    39.80,    33.0048,   114.54,    29.9242,    -5.62,     40.331,  -125.07,          0,     0.00,    9.24113,  -140.20
Line.184239,    9.18947,   173.83,          0,     0.00,          0,     0.00,          0,     0.00,    9.18947,   173.83,    9.18947,    -6.17,          0,     0.00,          0,     0.00,          0,     0.00,    9.18947,    -6.17
Line.184240,    9.07773,   174.60,          0,     0.00,          0,     0.00,          0,     0.00,    9.07773,   174.60,    9.07773,    -5.40,          0,     0.00,          0,     0.00,          0,     0.00,    9.07773,    -5.40
Line.184241,    3.89453,   174.52,          0,     0.00,          0,     0.00,          0,     0.00,    3.89453,   174.52,    3.89453,    -5.48,          0,     0.00,          0,     0.00,          0,     0.00,    3.89453,    -5.48
...
Line.S_0862099-DA1,    50.4239,   -93.63,    50.4255,   146.38,    50.4289,    26.34,          0,     0.00,  0.0272237,   -63.19,    50.4239,    86.37,    50.4255,   -33.62,    50.4289,  -153.66,          0,     0.00,  0.0272237,   116.81
Line.S_0862099-DA2,    50.4239,   -93.63,    50.4255,   146.38,    50.4289,    26.34,          0,     0.00,  0.0272237,   -63.19,    50.4239,    86.37,    50.4255,   -33.62,    50.4289,  -153.66,          0,     0.00,  0.0272237,   116.81
Line.S_0862099-DA3,    50.4239,   -93.63,    50.4255,   146.38,    50.4289,    26.34,          0,     0.00,  0.0272237,   -63.19,    50.4239,    86.37,    50.4255,   -33.62,    50.4289,  -153.66,          0,     0.00,  0.0272237,   116.81
Line.S_1000663-DA1,    35.9402,   -63.27,          0,     0.00,          0,     0.00,          0,     0.00,    35.9402,   -63.27,    35.9402,   116.73,          0,     0.00,          0,     0.00,          0,     0.00,    35.9402,   116.73
Line.S_1000663-DB1,    38.1129,   176.76,          0,     0.00,          0,     0.00,          0,     0.00,    38.1129,   176.76,    38.1129,    -3.24,          0,     0.00,          0,     0.00,          0,     0.00,    38.1129,    -3.24
Line.S_1000663-DC1,    39.6297,    56.80,          0,     0.00,          0,     0.00,          0,     0.00,    39.6297,    56.80,    39.6298,  -123.20,          0,     0.00,          0,     0.00,          0,     0.00,    39.6298,  -123.20
Line.S_1000252-DB1,    56.3787,   176.65,          0,     0.00,          0,     0.00,          0,     0.00,    56.3787,   176.65,    56.3787,    -3.35,          0,     0.00,          0,     0.00,          0,     0.00,    56.3787,    -3.35
Line.S_1001746-DA1,    100.729,   -93.90,    100.738,   146.14,    100.756,    26.02,          0,     0.00,   0.161949,   -73.53,    100.729,    86.10,    100.738,   -33.86,    100.756,  -153.98,          0,     0.00,   0.161949,   106.47
Line.S_1001746-DA2,    100.729,   -93.90,    100.738,   146.14,    100.756,    26.02,          0,     0.00,   0.161949,   -73.53,    100.729,    86.10,    100.738,   -33.86,    100.756,  -153.98,          0,     0.00,   0.161949,   106.47
Line.S_1001746-DA3,    100.729,   -93.90,    100.738,   146.14,    100.756,    26.02,          0,     0.00,   0.161949,   -73.53,    100.729,    86.10,    100.738,   -33.86,    100.756,  -153.98,          0,     0.00,   0.161949,   106.47
Line.S_1000502-DB1,    114.161,   176.73,          0,     0.00,          0,     0.00,          0,     0.00,    114.161,   176.73,    114.161,    -3.27,          0,     0.00,          0,     0.00,          0,     0.00,    114.161,    -3.27
Line.S_1000824-DA1,    11.9773,   -63.87,          0,     0.00,          0,     0.00,          0,     0.00,    11.9773,   -63.87,    11.9773,   116.13,          0,     0.00,          0,     0.00,          0,     0.00,    11.9773,   116.13
Line.S_1000824-DA2,    11.9773,   -63.87,          0,     0.00,          0,     0.00,          0,     0.00,    11.9773,   -63.87,    11.9773,   116.13,          0,     0.00,          0,     0.00,          0,     0.00,    11.9773,   116.13
Line.S_1000824-DA3,    11.9773,   -63.87,          0,     0.00,          0,     0.00,          0,     0.00,    11.9773,   -63.87,    11.9773,   116.13,          0,     0.00,          0,     0.00,          0,     0.00,    11.9773,   116.13
Line.S_1000824-DB1,    12.7047,   176.22,          0,     0.00,          0,     0.00,          0,     0.00,    12.7047,   176.22,    12.7047,    -3.78,          0,     0.00,          0,     0.00,          0,     0.00,    12.7047,    -3.78
Line.S_1000824-DB2,    12.7047,   176.22,          0,     0.00,          0,     0.00,          0,     0.00,    12.7047,   176.22,    12.7047,    -3.78,          0,     0.00,          0,     0.00,          0,     0.00,    12.7047,    -3.78
Line.S_1000824-DB3,    12.7047,   176.22,          0,     0.00,          0,     0.00,          0,     0.00,    12.7047,   176.22,    12.7047,    -3.78,          0,     0.00,          0,     0.00,          0,     0.00,    12.7047,    -3.78
Line.S_1000824-DC1,    13.2054,    56.30,          0,     0.00,          0,     0.00,          0,     0.00,    13.2054,    56.30,    13.2054,  -123.70,          0,     0.00,          0,     0.00,          0,     0.00,    13.2054,  -123.70
Line.S_1000824-DC2,    13.2054,    56.30,          0,     0.00,          0,     0.00,          0,     0.00,    13.2054,    56.30,    13.2054,  -123.70,          0,     0.00,          0,     0.00,          0,     0.00,    13.2054,  -123.70
Line.S_1000824-DC3,    13.2054,    56.30,          0,     0.00,          0,     0.00,          0,     0.00,    13.2054,    56.30,    13.2054,  -123.70,          0,     0.00,          0,     0.00,          0,     0.00,    13.2054,  -123.70
Line.S_1001745-DA1,    100.726,   -93.89,    100.736,   146.14,    100.754,    26.03,          0,     0.00,    0.16194,   -73.55,    100.726,    86.11,    100.736,   -33.86,    100.754,  -153.97,          0,     0.00,    0.16194,   106.45
Line.S_1001745-DA2,    100.726,   -93.89,    100.736,   146.14,    100.754,    26.03,          0,     0.00,    0.16194,   -73.55,    100.726,    86.11,    100.736,   -33.86,    100.754,  -153.97,          0,     0.00,    0.16194,   106.45
Line.S_1001745-DA3,    100.726,   -93.89,    100.736,   146.14,    100.754,    26.03,          0,     0.00,    0.16194,   -73.55,    100.726,    86.11,    100.736,   -33.86,    100.754,  -153.97,          0,     0.00,    0.16194,   106.45
Line.S_1001329-DA1,    50.3924,   -94.04,    50.3948,   146.00,    50.4026,    25.91,          0,     0.00,  0.0622745,   -87.61,    50.3924,    85.96,    50.3949,   -34.00,    50.4027,  -154.09,          0,     0.00,  0.0622745,    92.39
Line.S_1001329-DA2,    50.3924,   -94.04,    50.3948,   146.00,    50.4026,    25.91,          0,     0.00,  0.0622745,   -87.61,    50.3924,    85.96,    50.3949,   -34.00,    50.4027,  -154.09,          0,     0.00,  0.0622745,    92.39
Line.S_1001329-DA3,    50.3924,   -94.04,    50.3948,   146.00,    50.4026,    25.91,          0,     0.00,  0.0622745,   -87.61,    50.3924,    85.96,    50.3949,   -34.00,    50.4027,  -154.09,          0,     0.00,  0.0622745,    92.39
Line.S_1001359-DA1,    167.654,   -93.69,     167.68,   146.33,    167.711,    26.19,          0,     0.00,   0.365054,   -64.44,    167.654,    86.31,     167.68,   -33.67,    167.711,  -153.81,          0,     0.00,   0.365054,   115.56
Line.S_1001359-DA2,    167.654,   -93.69,     167.68,   146.33,    167.711,    26.19,          0,     0.00,   0.365054,   -64.44,    167.654,    86.31,     167.68,   -33.67,    167.711,  -153.81,          0,     0.00,   0.365054,   115.56
Line.S_1001359-DA3,    167.654,   -93.69,     167.68,   146.33,    167.711,    26.19,          0,     0.00,   0.365054,   -64.44,    167.654,    86.31,     167.68,   -33.67,    167.711,  -153.81,          0,     0.00,   0.365054,   115.56
Line.S_1001330-DA1,    50.3956,   -94.11,    50.3981,   145.93,    50.4059,    25.84,          0,     0.00,  0.0622492,   -87.68,    50.3957,    85.88,    50.3981,   -34.07,     50.406,  -154.16,          0,     0.00,  0.0622492,    92.32
Line.S_1001330-DA2,    50.3956,   -94.11,    50.3981,   145.93,    50.4059,    25.84,          0,     0.00,  0.0622492,   -87.68,    50.3957,    85.88,    50.3981,   -34.07,     50.406,  -154.16,          0,     0.00,  0.0622492,    92.32
Line.S_1001330-DA3,    50.3956,   -94.11,    50.3981,   145.93,    50.4059,    25.84,          0,     0.00,  0.0622492,   -87.68,    50.3957,    85.88,    50.3981,   -34.07,     50.406,  -154.16,          0,     0.00,  0.0622492,    92.32
Line.S_1001330-DA4,    50.3956,   -94.11,    50.3981,   145.93,    50.4059,    25.84,          0,     0.00,  0.0622492,   -87.68,    50.3957,    85.88,    50.3981,   -34.07,     50.406,  -154.16,          0,     0.00,  0.0622492,    92.32
Line.S_1001330-DA5,    50.3956,   -94.11,    50.3981,   145.93,    50.4059,    25.84,          0,     0.00,  0.0622492,   -87.68,    50.3957,    85.88,    50.3981,   -34.07,     50.406,  -154.16,          0,     0.00,  0.0622492,    92.32
Line.S_1001330-DA6,    50.3956,   -94.11,    50.3981,   145.93,    50.4059,    25.84,          0,     0.00,  0.0622492,   -87.68,    50.3957,    85.88,    50.3981,   -34.07,     50.406,  -154.16,          0,     0.00,  0.0622492,    92.32
Line.S_1000672-DA1,    35.9082,   -63.71,          0,     0.00,          0,     0.00,          0,     0.00,    35.9082,   -63.71,    35.9082,   116.29,          0,     0.00,          0,     0.00,          0,     0.00,    35.9082,   116.29
Line.S_1001708-DA1,    251.189,   -93.36,    251.249,   146.65,    251.301,    26.46,          0,     0.00,   0.780013,   -59.86,    251.189,    86.64,    251.249,   -33.35,    251.301,  -153.54,          0,     0.00,   0.780013,   120.14
Line.S_1001708-DA2,    251.189,   -93.36,    251.249,   146.65,    251.301,    26.46,          0,     0.00,   0.780013,   -59.86,    251.189,    86.64,    251.249,   -33.35,    251.301,  -153.54,          0,     0.00,   0.780013,   120.14
Line.S_1001708-DA3,    251.189,   -93.36,    251.249,   146.65,    251.301,    26.46,          0,     0.00,   0.780013,   -59.86,    251.189,    86.64,    251.249,   -33.35,    251.301,  -153.54,          0,     0.00,   0.780013,   120.14
Line.S_1001345-DA1,    50.3768,   -94.09,    50.3806,   145.96,    50.3892,    25.85,          0,     0.00,  0.0779408,   -85.90,    50.3769,    85.91,    50.3806,   -34.04,    50.3893,  -154.15,          0,     0.00,  0.0779408,    94.10
Line.S_1001345-DA2,    50.3768,   -94.09,    50.3806,   145.96,    50.3892,    25.85,          0,     0.00,  0.0779408,   -85.90,    50.3769,    85.91,    50.3806,   -34.04,    50.3893,  -154.15,          0,     0.00,  0.0779408,    94.10
Line.S_1001345-DA3,    50.3768,   -94.09,    50.3806,   145.96,    50.3892,    25.85,          0,     0.00,  0.0779408,   -85.90,    50.3769,    85.91,    50.3806,   -34.04,    50.3893,  -154.15,          0,     0.00,  0.0779408,    94.10
Line.S_1000933-DA1,    10.0807,   -94.27,     10.081,   145.80,    10.0826,    25.70,          0,     0.00,    0.01319,  -100.30,    10.0807,    85.73,    10.0811,   -34.20,    10.0826,  -154.30,          0,     0.00,    0.01319,    79.70
Line.S_1000933-DA2,    10.0807,   -94.27,     10.081,   145.80,    10.0826,    25.70,          0,     0.00,    0.01319,  -100.30,    10.0807,    85.73,    10.0811,   -34.20,    10.0826,  -154.30,          0,     0.00,    0.01319,    79.70
Line.S_1000933-DA3,    10.0807,   -94.27,     10.081,   145.80,    10.0826,    25.70,          0,     0.00,    0.01319,  -100.30,    10.0807,    85.73,    10.0811,   -34.20,    10.0826,  -154.30,          0,     0.00,    0.01319,    79.70
Line.S_1000933-DA4,    10.0807,   -94.27,     10.081,   145.80,    10.0826,    25.70,          0,     0.00,    0.01319,  -100.30,    10.0807,    85.73,    10.0811,   -34.20,    10.0826,  -154.30,          0,     0.00,    0.01319,    79.70
Line.S_1000933-DA5,    10.0807,   -94.27,     10.081,   145.80,    10.0826,    25.70,          0,     0.00,    0.01319,  -100.30,    10.0807,    85.73,    10.0811,   -34.20,    10.0826,  -154.30,          0,     0.00,    0.01319,    79.70
Line.S_1000933-DA6,    10.0807,   -94.27,     10.081,   145.80,    10.0826,    25.70,          0,     0.00,    0.01319,  -100.30,    10.0807,    85.73,    10.0811,   -34.20,    10.0826,  -154.30,          0,     0.00,    0.01319,    79.70
Line.S_1000933-DA7,    10.0807,   -94.27,     10.081,   145.80,    10.0826,    25.70,          0,     0.00,    0.01319,  -100.30,    10.0807,    85.73,    10.0811,   -34.20,    10.0826,  -154.30,          0,     0.00,    0.01319,    79.70
Line.S_1000933-DA8,    10.0807,   -94.27,     10.081,   145.80,    10.0826,    25.70,          0,     0.00,    0.01319,  -100.30,    10.0807,    85.73,    10.0811,   -34.20,    10.0826,  -154.30,          0,     0.00,    0.01319,    79.70
...